    def _update_turbulence_properties(self, turbulence):
        tp_path = os.path.join(self.case_dir, "constant", "turbulenceProperties")

        # In case the file got deleted by a previous run or doesn't exist, we recreate a base structure
        if not os.path.exists(tp_path):
            base_content = r'''/*--------------------------------*- C++ -*----------------------------------*\
| =========                 |                                                 |
| \\      /  F ield         | OpenFOAM: The Open Source CFD Toolbox           |
|  \\    /   O peration     | Version:  v2512                                 |
|   \\  /    A nd           | Website:  www.openfoam.com                      |
|    \\/     M anipulation  |                                                 |
\*---------------------------------------------------------------------------*/
FoamFile
{
    version     2.0;
    format      ascii;
    class       dictionary;
    location    "constant";
    object      turbulenceProperties;
}
// * * * * * * * * * * * * * * * * * * * * * * * * * * * * * * * * * * * * * //

simulationType  RAS;

RAS
{
    model           RNGkEpsilon;
    turbulence      on;
    printCoeffs     on;
}

// ************************************************************************* //
'''
            with open(tp_path, 'w') as f:
                f.write(base_content)

        with open(tp_path, 'r') as f:
            t_content = f.read()

        if turbulence == "laminar" or turbulence == "kOmegaSST_disabled":
            # Cleanly disable turbulence by switching model to laminar and turbulence off.
            t_content = re.sub(r"simulationType\s+.*?;", "simulationType  laminar;", t_content)
            t_content = re.sub(r"turbulence\s+.*?;", "turbulence      off;", t_content)
        else:
            t_content = re.sub(r"simulationType\s+.*?;", "simulationType  RAS;", t_content)
            t_content = re.sub(r"model\s+.*?;", f"model           {turbulence};", t_content)
            t_content = re.sub(r"turbulence\s+.*?;", "turbulence      on;", t_content)

        with open(tp_path, 'w') as f:
            f.write(t_content)

    def _run_checkMesh(self):
        success, output = self.run_command(
            ["checkMesh", "-allGeometry", "-allTopology"],
            capture_output=True
        )
        return output if success else ""

    def _parse_mesh_quality(self, output):
        def extract(pattern, default=0.0):
            m = re.search(pattern, output)
            return float(m.group(1)) if m else default

        return {
            "non_orth": extract(r"max non-orthogonality = ([\d\.]+)"),
            "skewness": extract(r"max skewness = ([\d\.]+)"),
            "min_vol": extract(r"min volume = ([\deE\+\-\.]+)", 1.0),
        }

    def _classify_mesh(self, q):
        if q["non_orth"] > 75 or q["skewness"] > 4:
            return "terrible"
        elif q["non_orth"] > 65 or q["skewness"] > 2.5:
            return "bad"
        elif q["non_orth"] > 50 or q["skewness"] > 1.5:
            return "moderate"
        else:
            return "good"

    def _update_fvSchemes(self, turbulence):
        quality_output = self._run_checkMesh()
        q = self._parse_mesh_quality(quality_output)

        # Check for degenerate cells first
        if q["min_vol"] < 1e-15:
            print(f"🚨 Degenerate cells detected (min_vol = {q['min_vol']:.3e}) → forcing laminar")
            turbulence = "laminar"

        mesh_class = self._classify_mesh(q)

        print(f"[Mesh Quality] {mesh_class} | {q}")

        # Base config
        snGrad = "limited corrected 0.33"
        laplacian = "Gauss linear limited corrected 0.33"
        div_u = "bounded Gauss upwind"

        # Adapt based on mesh
        if mesh_class == "good":
            snGrad = "corrected"
            laplacian = "Gauss linear corrected"
            div_u = "Gauss linearUpwind grad(U)"

        elif mesh_class == "moderate":
            snGrad = "limited corrected 0.5"
            laplacian = "Gauss linear limited corrected 0.5"
            div_u = "bounded Gauss linearUpwind grad(U)"

        elif mesh_class == "bad":
            snGrad = "limited corrected 0.33"
            laplacian = "Gauss linear limited corrected 0.33"
            div_u = "bounded Gauss upwind"

        elif mesh_class == "terrible":
            print("⚠️ Mesh is terrible → forcing laminar + max stability")
            turbulence = "laminar"
            snGrad = "limited corrected 0.2"
            laplacian = "Gauss linear limited corrected 0.2"
            div_u = "bounded Gauss upwind"

        # --- Build fvSchemes cleanly ---
        content = f"""/*--------------------------------*- C++ -*----------------------------------*\
| =========                 |                                                 |
| \      /  F ield         | OpenFOAM: The Open Source CFD Toolbox           |
|  \    /   O peration     | Version:  v2512                                 |
|   \  /    A nd           | Website:  www.openfoam.com                      |
|    \/     M anipulation  |                                                 |
\*---------------------------------------------------------------------------*/
FoamFile
{{
    version     2.0;
    format      ascii;
    class       dictionary;
    location    "system";
    object      fvSchemes;
}}
// * * * * * * * * * * * * * * * * * * * * * * * * * * * * * * * * * * * * * //

ddtSchemes
{{
    default         steadyState;
}}

gradSchemes
{{
    default         Gauss linear;
    grad(p)         Gauss linear;
}}

divSchemes
{{
    default         none;
    div(phi,U)      {div_u};
"""

        if turbulence != "laminar" and turbulence != "kOmegaSST_disabled":
            if turbulence == "RNGkEpsilon":
                content += """    div(phi,k)      bounded Gauss upwind;
    div(phi,epsilon) bounded Gauss upwind;
"""
            elif turbulence == "kOmegaSST":
                content += """    div(phi,k)      bounded Gauss upwind;
    div(phi,omega) bounded Gauss upwind;
"""

        content += """}

laplacianSchemes
{
    default         """ + laplacian + """;
}

interpolationSchemes
{
    default         linear;
}

snGradSchemes
{
    default         """ + snGrad + """;
}

wallDist
{
    method meshWave;
}

// ************************************************************************* //
"""

        target_path = os.path.join(self.case_dir, "system", "fvSchemes")
        with open(target_path, "w", newline='\n') as f:
            f.write(content)

        return turbulence

    def _update_fvSolution(self, turbulence, cfd_settings=None, relaxation_override=None):

<<<<<<< HEAD
=======
        if not os.path.exists(target_path): return

        with open(target_path, 'r') as f:
            content = f.read()

        # Aggressively clean up previous run's duplicated injections or missing fields
        # This prevents the file from growing indefinitely or causing parsing errors
        content = re.sub(r"^\s*div\(phi,U\).*?;[ \t]*\r?\n", "", content, flags=re.MULTILINE)
        content = re.sub(r"^\s*div\(phi,k\).*?;[ \t]*\r?\n", "", content, flags=re.MULTILINE)
        content = re.sub(r"^\s*div\(phi,epsilon\).*?;[ \t]*\r?\n", "", content, flags=re.MULTILINE)
        content = re.sub(r"^\s*div\(phi,omega\).*?;[ \t]*\r?\n", "", content, flags=re.MULTILINE)
