/*--------------------------------*- C++ -*----------------------------------*\\
| =========                 |                                                 |
| \\      /  F ield         | OpenFOAM: The Open Source CFD Toolbox           |
|  \\    /   O peration     | Version:  v2512                                 |
|   \\  /    A nd           | Website:  www.openfoam.com                      |
|    \\/     M anipulation  |                                                 |
\\*---------------------------------------------------------------------------*/
FoamFile
{
    version     2.0;
    format      ascii;
    class       volScalarField;
    object      nut;
}
// * * * * * * * * * * * * * * * * * * * * * * * * * * * * * * * * * * * * * //

dimensions      [0 2 -1 0 0 0 0];

internalField   uniform 0;

boundaryField
{
    inlet
    {
        type            calculated;
        value           uniform 0;
    }

    outlet
    {
        type            calculated;
        value           uniform 0;
    }

    walls
    {
        type            nutkRoughWallFunction;
        Ks              uniform 0.0002;  // 0.2mm layer height roughness!
        Cs              uniform 0.5;     // Standard roughness constant
        value           uniform 0;
    }

    corkscrew
    {
        type            nutkRoughWallFunction;
        Ks              uniform 0.0002;  // 0.2mm layer height roughness!
        Cs              uniform 0.5;
        value           uniform 0;
    }

    clean_outlet
    {
        type            calculated;
        value           uniform 0;
    }

    dust_outlet
    {
        type            calculated;
        value           uniform 0;
    }

}

// ************************************************************************* //
