/*--------------------------------*- C++ -*----------------------------------*\\
| =========                 |                                                 |
| \\      /  F ield         | OpenFOAM: The Open Source CFD Toolbox           |
|  \\    /   O peration     | Version:  v2406                                 |
|   \\  /    A nd           | Website:  www.openfoam.com                      |
|    \\/     M anipulation  |                                                 |
\\*---------------------------------------------------------------------------*/
FoamFile
{
    version     2.0;
    format      ascii;
    class       dictionary;
    location    "system";
    object      controlDict;
}
// * * * * * * * * * * * * * * * * * * * * * * * * * * * * * * * * * * * * * //

application icoUncoupledKinematicParcelFoam;

startFrom latestTime;

startTime 0.0182;

stopAt endTime;

endTime 15.0182;

deltaT 0.0001;

writeControl    timeStep;

writeInterval 1000;

purgeWrite      0;

writeFormat     ascii;

writePrecision  6;

writeCompression off;

timeFormat      general;

timePrecision   6;

runTimeModifiable true;



functions_disabled_disabled_disabled_disabled_disabled
{
    inletPressure
    {
        type            surfaceFieldValue;
        libs            ("libfieldFunctionObjects.so");
        writeControl    timeStep;
        writeInterval 1000;
        log             true;
        writeFields     false;
        regionType      patch;
        name            inlet;
        operation       areaAverage;
        fields          (p);
    }
    outletPressure
    {
        type            surfaceFieldValue;
        libs            ("libfieldFunctionObjects.so");
        writeControl    timeStep;
        writeInterval 1000;
        log             true;
        writeFields     false;
        regionType      patch;
        name            outlet;
        operation       areaAverage;
        fields          (p);
    }
}

// ************************************************************************* //
