/*--------------------------------*- C++ -*----------------------------------*\
| =========                 |                                                 |
| \      /  F ield         | OpenFOAM: The Open Source CFD Toolbox           |
|  \    /   O peration     | Version:  v2406                                 |
|   \  /    A nd           | Website:  www.openfoam.com                      |
|    \/     M anipulation  |                                                 |
\*---------------------------------------------------------------------------*/
FoamFile
{
    version     2.0;
    format      ascii;
    class       dictionary;
    object      topoSetDict;
}
// * * * * * * * * * * * * * * * * * * * * * * * * * * * * * * * * * * * * * //

actions
(
    // 1. Select all faces in 'corkscrew' patch (if it exists) or all boundary faces
    // Since snappyHexMesh puts everything in 'corkscrew' (from STL name), start with that.
    {
        name    corkscrewFaces;
        type    faceSet;
        action  new;
        source  patchToFace;
        patch   corkscrew;
    }

    // 2. Select Inlet Faces (Bottom, Normal 0 0 -1)
    {
        name    inletFaces;
        type    faceSet;
        action  new;
        source  normalToFace;
        normal  (0 0 -1);
        cos     0.8; // Tolerance (allow some deviation)
    }
    // Intersect with corkscrew boundary faces
    {
        name    inletFaces;
        type    faceSet;
        action  subset;
        source  faceToFace;
        set     corkscrewFaces;
    }

    // 3. Select Outlet Faces (Top, Normal 0 0 1)
    {
        name    outletFaces;
        type    faceSet;
        action  new;
        source  normalToFace;
        normal  (0 0 1);
        cos     0.8;
    }
    {
        name    outletFaces;
        type    faceSet;
        action  subset;
        source  faceToFace;
        set     corkscrewFaces;
    }
);

// ************************************************************************* //
