
/*--------------------------------*- C++ -*----------------------------------*\
| =========                 |                                                 |
| \      /  F ield         | OpenFOAM: The Open Source CFD Toolbox           |
|  \    /   O peration     | Version:  v2406                                 |
|   \  /    A nd           | Website:  www.openfoam.com                      |
|    \/     M anipulation  |                                                 |
\*---------------------------------------------------------------------------*/
FoamFile
{
    version     2.0;
    format      ascii;
    class       dictionary;
    object      topoSetDict;
}
// * * * * * * * * * * * * * * * * * * * * * * * * * * * * * * * * * * * * * //

actions
(
    // Inlet (Bottom)
    {
        name    inlet_faces;
        type    faceSet;
        action  new;
        source  boxToFace;
        sourceInfo
        {
            box (-115.0 -115.0 -20.5) (115.0 115.0 -19.5);
        }
    }

    // Outlet (Top)
    {
        name    outlet_faces;
        type    faceSet;
        action  new;
        source  boxToFace;
        sourceInfo
        {
            box (-115.0 -115.0 19.5) (115.0 115.0 20.5);
        }
    }
);

// ************************************************************************* //
