/*--------------------------------*- C++ -*----------------------------------*\
| =========                 |                                                 |
| \\      /  F ield         | OpenFOAM: The Open Source CFD Toolbox           |
|  \\    /   O peration     | Version:  v2406                                 |
|   \\  /    A nd           | Website:  www.openfoam.com                      |
|    \\/     M anipulation  |                                                 |
\*---------------------------------------------------------------------------*/
FoamFile
{
    version     2.0;
    format      ascii;
    class       dictionary;
    location    "constant";
    object      kinematicCloudProperties;
}
// * * * * * * * * * * * * * * * * * * * * * * * * * * * * * * * * * * * * * //

solution
{
    active          true;
    coupled         false; // One-way coupling
    transient       no;
    maxTrackTime    10.0;
    calcFrequency   1;
    cellValueSourceCorrection off;

    interpolationSchemes
    {
        rho             cell;
        U               cell;     // Use cell center values for robustness
        mu              cell;
    }

    integrationSchemes
    {
        U               Euler;
    }

    sourceTerms
    {
        schemes
        {
            U               explicit 1;
        }
    }
}

constantVolume      false;

// Moon Dust Properties (Basaltic Regolith)
rho0            3100; // kg/m^3 (approx. 3.1 g/cm^3)

// Young's Modulus: ~70 GPa (Basalt)
// Poisson's Ratio: 0.25 (Basalt)
// Restitution Coefficient: ~0.8-0.9

subModels
{
    particleForces
    {
        sphereDrag;
        gravity;
    }

    collisionModel none;
    // For dilute flows, stochastic collisions are negligible.
    // If enabled, use: stochasticCollision; with coefficients for Basalt.
    stochasticCollisionModel none;

    injectionModels
    {
        model1
        {
            type            patchInjection;
            patch           inlet;
            parcelBasisType number;
            parcelsPerSecond 1000;
            duration        1; // Inject for 1 second
            SOI             0; // Start of Injection
            noi             1;
            massFlowRate    1e-5;
            flowRateProfile constant 1;
            U0              (0 0 5);
            sizeDistribution
            {
                type        fixedValue;
                fixedValueDistribution
                {
                    value   20e-6; // 20 microns
                }
            }
        }
    }

    dispersionModel none;

    patchInteractionModel localInteraction;

    localInteractionCoeffs
    {
        patches
        (
            corkscrew
            {
                type stick;
            }
            outlet
            {
                type escape;
            }
            inlet
            {
                type escape;
            }
        );
    }

    surfaceFilmModel none;
}

cloudFunctions
{}

// ************************************************************************* //
